  0
SECTION
  2
ENTITIES
999
DXF created from EnergyPlus
999
Program Version,EnergyPlus, Version 22.2.0-c249759bad, YMD=2023.11.27 17:06
999
Polygon Action,TRIANGULATE3DFACE
999
Color Scheme,Default
999
Text - True North
  0
TEXT
  8
1
  6
Continuous
 62
  3
 10
      -11.00000
 20
        2.19440
 30
        0.10000
 40
 .25
  1
True North
 41
 0.0
  7
MONOTXT
210
0.0
220
0.0
230
1.0
999
Text - Building Title
  0
TEXT
  8
1
  6
Continuous
 62
  3
 10
      -14.00000
 20
       -1.80560
 30
        0.10000
 40
 .4
  1
Building - Building
 41
 0.0
  7
MONOTXT
210
0.0
220
0.0
230
1.0
999
North Arrow Stem
  0
3DFACE
  8
1
 62
  3
 10
      -10.00000
 20
        2.19440
 30
        0.10000
 11
      -10.00000
 21
        2.19440
 31
        0.00000
 12
      -10.00000
 22
       -0.80560
 32
        0.00000
 13
      -10.00000
 23
       -0.80560
 33
        0.10000
999
North Arrow Head 1
  0
3DFACE
  8
1
 62
  3
 10
      -10.00000
 20
        2.19440
 30
        0.10000
 11
      -10.00000
 21
        2.19440
 31
        0.00000
 12
      -10.50000
 22
        1.32837
 32
        0.00000
 13
      -10.50000
 23
        1.32837
 33
        0.10000
999
North Arrow Head 2
  0
3DFACE
  8
1
 62
  3
 10
      -10.00000
 20
        2.19440
 30
        0.10000
 11
      -10.00000
 21
        2.19440
 31
        0.00000
 12
       -9.50000
 22
        1.32837
 32
        0.00000
 13
       -9.50000
 23
        1.32837
 33
        0.10000
999
North Arrow Side 1
  0
3DFACE
  8
1
 62
  3
 10
      -10.50000
 20
        3.69440
 30
        0.10000
 11
      -10.50000
 21
        3.69440
 31
        0.00000
 12
      -10.50000
 22
        2.69440
 32
        0.00000
 13
      -10.50000
 23
        2.69440
 33
        0.10000
999
North Arrow Side 2
  0
3DFACE
  8
1
 62
  3
 10
      -10.50000
 20
        3.69440
 30
        0.10000
 11
      -10.50000
 21
        3.69440
 31
        0.00000
 12
       -9.50000
 22
        2.69440
 32
        0.00000
 13
       -9.50000
 23
        2.69440
 33
        0.10000
999
North Arrow Side 3
  0
3DFACE
  8
1
 62
  3
 10
       -9.50000
 20
        3.69440
 30
        0.10000
 11
       -9.50000
 21
        3.69440
 31
        0.00000
 12
       -9.50000
 22
        2.69440
 32
        0.00000
 13
       -9.50000
 23
        2.69440
 33
        0.10000
999
Zone Names
999
Zone=1:ZONE_0
999
ZONE_0:ZONE_0:F0
  0
3DFACE
  8
ZONE_0
 62
 43
 10
        6.00000
 20
        9.19440
 30
        4.00000
 11
        6.00000
 21
        9.19440
 31
        0.00000
 12
        0.00000
 22
        9.19440
 32
        0.00000
 13
        0.00000
 23
        9.19440
 33
        4.00000
999
ZONE_0:ZONE_0:F1
  0
3DFACE
  8
ZONE_0
 62
 43
 10
        0.00000
 20
        9.19440
 30
        4.00000
 11
        0.00000
 21
        9.19440
 31
        0.00000
 12
        0.00000
 22
       -0.80560
 32
        0.00000
 13
        0.00000
 23
       -0.80560
 33
        4.00000
999
ZONE_0:ZONE_0:F2
  0
3DFACE
  8
ZONE_0
 62
 43
 10
        0.00000
 20
       -0.80560
 30
        4.00000
 11
        0.00000
 21
       -0.80560
 31
        0.00000
 12
        6.00000
 22
       -0.80560
 32
        0.00000
 13
        6.00000
 23
       -0.80560
 33
        4.00000
999
ZONE_0:ZONE_0:F2:W0
  0
3DFACE
  8
ZONE_0
 62
143
 10
        1.35680
 20
       -0.80560
 30
        3.09540
 11
        1.35680
 21
       -0.80560
 31
        0.90460
 12
        4.64320
 22
       -0.80560
 32
        0.90460
 13
        4.64320
 23
       -0.80560
 33
        3.09540
999
ZONE_0:ZONE_0:F3
  0
3DFACE
  8
ZONE_0
 62
 43
 10
        6.00000
 20
       -0.80560
 30
        4.00000
 11
        6.00000
 21
       -0.80560
 31
        0.00000
 12
        6.00000
 22
        9.19440
 32
        0.00000
 13
        6.00000
 23
        9.19440
 33
        4.00000
999
ZONE_0:ZONE_0:F4
  0
3DFACE
  8
ZONE_0
 62
  8
 10
        6.00000
 20
        9.19440
 30
        0.00000
 11
        6.00000
 21
       -0.80560
 31
        0.00000
 12
        0.00000
 22
       -0.80560
 32
        0.00000
 13
        0.00000
 23
        9.19440
 33
        0.00000
999
ZONE_0:ZONE_0:F5
  0
3DFACE
  8
ZONE_0
 62
 15
 10
        6.00000
 20
        9.19440
 30
        4.00000
 11
        0.00000
 21
        9.19440
 31
        4.00000
 12
        0.00000
 22
       -0.80560
 32
        4.00000
 13
        6.00000
 23
       -0.80560
 33
        4.00000
  0
ENDSEC
  0
EOF
